Version 4
SHEET 1 1980 680
WIRE -992 -464 -1168 -464
WIRE -864 -464 -912 -464
WIRE -720 -464 -784 -464
WIRE -416 -464 -720 -464
WIRE -208 -464 -416 -464
WIRE -64 -464 -208 -464
WIRE 16 -464 -64 -464
WIRE 32 -464 16 -464
WIRE 96 -464 32 -464
WIRE 208 -464 176 -464
WIRE 448 -464 208 -464
WIRE 208 -448 208 -464
WIRE 16 -432 16 -464
WIRE 688 -432 592 -432
WIRE 832 -432 768 -432
WIRE 960 -432 832 -432
WIRE 448 -416 448 -464
WIRE -720 -400 -720 -464
WIRE -64 -400 -64 -464
WIRE 832 -400 832 -432
WIRE 960 -400 960 -432
WIRE 1136 -400 1136 -432
WIRE 592 -384 592 -432
WIRE 304 -368 208 -368
WIRE 208 -352 208 -368
WIRE -208 -336 -208 -464
WIRE -416 -320 -416 -464
WIRE -272 -288 -304 -288
WIRE -720 -272 -720 -320
WIRE -672 -272 -720 -272
WIRE 448 -272 448 -336
WIRE -64 -256 -64 -336
WIRE 16 -256 16 -288
WIRE 16 -256 -64 -256
WIRE 208 -256 208 -288
WIRE 208 -256 16 -256
WIRE 256 -256 208 -256
WIRE 304 -256 256 -256
WIRE 448 -256 448 -272
WIRE 448 -256 384 -256
WIRE 592 -256 592 -304
WIRE 832 -256 832 -336
WIRE 832 -256 592 -256
WIRE 960 -256 960 -320
WIRE 960 -256 832 -256
WIRE 1136 -256 1136 -320
WIRE 1136 -256 960 -256
WIRE -1168 -240 -1168 -464
WIRE -720 -240 -720 -272
WIRE 208 -224 208 -256
WIRE 368 -224 208 -224
WIRE 832 -224 832 -256
WIRE 368 -208 368 -224
WIRE 208 -192 208 -224
WIRE -416 -176 -416 -240
WIRE -304 -176 -304 -288
WIRE -304 -176 -336 -176
WIRE -496 -144 -496 -176
WIRE 688 -128 592 -128
WIRE 832 -128 768 -128
WIRE 960 -128 832 -128
WIRE -416 -112 -416 -176
WIRE -208 -112 -208 -240
WIRE -112 -112 -208 -112
WIRE 48 -112 -32 -112
WIRE 80 -112 48 -112
WIRE 160 -112 80 -112
WIRE 832 -96 832 -128
WIRE 960 -96 960 -128
WIRE 1120 -96 1120 -128
WIRE 592 -80 592 -128
WIRE -208 -64 -208 -112
WIRE 48 -48 48 -112
WIRE 208 -48 208 -96
WIRE 368 -48 368 -64
WIRE 368 -48 208 -48
WIRE -1280 -32 -1280 -64
WIRE -592 -32 -608 -32
WIRE -496 -32 -496 -64
WIRE -496 -32 -512 -32
WIRE -464 -32 -496 -32
WIRE -304 -16 -304 -176
WIRE -272 -16 -304 -16
WIRE -608 16 -608 -32
WIRE 592 48 592 0
WIRE 832 48 832 -32
WIRE 832 48 592 48
WIRE 960 48 960 -16
WIRE 960 48 832 48
WIRE 1120 48 1120 -16
WIRE 1120 48 960 48
WIRE 832 80 832 48
WIRE -1280 96 -1280 48
WIRE -1168 96 -1168 -160
WIRE -1168 96 -1280 96
WIRE -720 96 -720 -176
WIRE -720 96 -1168 96
WIRE -608 96 -720 96
WIRE -416 96 -416 -16
WIRE -416 96 -608 96
WIRE -208 96 -208 32
WIRE -208 96 -416 96
WIRE 48 96 48 32
WIRE 48 96 -208 96
WIRE 208 96 208 -48
WIRE 208 96 48 96
WIRE 48 128 48 96
FLAG 48 128 0
FLAG 448 -464 V+
IOPIN 448 -464 Out
FLAG 448 -272 V-
IOPIN 448 -272 Out
FLAG -1168 -464 Vs
IOPIN -1168 -464 In
FLAG -608 -32 Vpulse
IOPIN -608 -32 In
FLAG 960 -128 Ilo
IOPIN 960 -128 Out
FLAG 832 80 0
FLAG 80 -112 Vgate
IOPIN 80 -112 In
FLAG 208 -48 Vsh
IOPIN 208 -48 Out
FLAG -416 -176 Vdrv
FLAG 256 -256 Vd
FLAG 960 -432 Ihi
IOPIN 960 -432 Out
FLAG 832 -224 0
FLAG -1280 -64 Vin
FLAG 1120 -128 rawlo
FLAG 1136 -432 rawhi
FLAG 304 -368 Vesr
FLAG -672 -272 Vbuf
FLAG -496 -176 Vin
FLAG 32 -464 Vl
SYMBOL cap 192 -352 R0
SYMATTR InstName C9
SYMATTR Value 100µ
SYMATTR SpiceLine V=50 Rser=0
SYMBOL res 432 -432 R0
SYMATTR InstName Rhtr
SYMATTR Value 1.2
SYMBOL ind 80 -448 R270
WINDOW 0 32 56 VTop 2
WINDOW 3 5 56 VBottom 2
SYMATTR InstName L1
SYMATTR Value 22µ
SYMATTR SpiceLine Ipk=8 Rser=33m
SYMBOL res -496 -48 R90
WINDOW 0 0 56 VBottom 2
WINDOW 3 32 56 VTop 2
SYMATTR InstName R3
SYMATTR Value 10
SYMBOL voltage -608 0 R0
WINDOW 123 0 0 Left 0
WINDOW 39 24 124 Left 2
SYMATTR SpiceLine Rser=8
SYMATTR InstName V1
SYMATTR Value PULSE(3.3 0 0 100n 100n 9.9u 15.8u 3700)
SYMBOL voltage -1168 -256 R0
WINDOW 123 0 0 Left 0
WINDOW 39 24 124 Left 2
SYMATTR SpiceLine Rser=0.1
SYMATTR InstName V2
SYMATTR Value 19
SYMBOL cap -736 -240 R0
SYMATTR InstName C1
SYMATTR Value 100µ
SYMATTR SpiceLine V=50 Rser=0
SYMBOL bv 1120 -112 R0
SYMATTR InstName B1
SYMATTR Value V=200*(V(v-)-V(vd))+(V(v-)+V(Vd))*0.00023
SYMBOL res 784 -144 R90
WINDOW 0 0 56 VBottom 2
WINDOW 3 32 56 VTop 2
SYMATTR InstName R2
SYMATTR Value 1000
SYMBOL cap 816 -96 R0
SYMATTR InstName C4
SYMATTR Value 100n
SYMBOL res 944 -112 R0
SYMATTR InstName Ramp2
SYMATTR Value 1000k
SYMBOL res 352 -224 R0
SYMATTR InstName R10
SYMATTR Value 100
SYMBOL cap 352 -128 R0
SYMATTR InstName C8
SYMATTR Value 1n
SYMATTR SpiceLine V=100 Rser=10m
SYMBOL schottky -48 -336 R180
WINDOW 0 24 64 Left 2
WINDOW 3 24 0 Left 2
SYMATTR InstName D2
SYMATTR Value B540C
SYMATTR Description Diode
SYMATTR Type diode
SYMBOL nmos 160 -192 R0
SYMATTR InstName Q2
SYMATTR Value BUK960940B
SYMBOL nmos -464 -112 R0
SYMATTR InstName Q1
SYMATTR Value 2N7002
SYMBOL pnp -272 32 M180
SYMATTR InstName U4b
SYMATTR Value 2N2907
SYMBOL npn -272 -336 R0
SYMATTR InstName U4a
SYMATTR Value 2N2222
SYMBOL res -432 -336 R0
SYMATTR InstName R5
SYMATTR Value 1k
SYMBOL res -16 -128 R90
WINDOW 0 0 56 VBottom 2
WINDOW 3 32 56 VTop 2
SYMATTR InstName R7
SYMATTR Value 10
SYMBOL res -320 -192 R90
WINDOW 0 0 56 VBottom 2
WINDOW 3 32 56 VTop 2
SYMATTR InstName R6
SYMATTR Value 100
SYMBOL res 0 -448 R0
SYMATTR InstName R8
SYMATTR Value 100
SYMBOL cap 0 -352 R0
SYMATTR InstName C7
SYMATTR Value 1n
SYMATTR SpiceLine V=100 Rser=10m
SYMBOL res 32 -64 R0
SYMATTR InstName R9
SYMATTR Value 10k
SYMBOL res 400 -272 R90
WINDOW 0 0 56 VBottom 2
WINDOW 3 32 56 VTop 2
SYMATTR InstName R11
SYMATTR Value 0.015
SYMBOL bv 1136 -416 R0
SYMATTR InstName B2
SYMATTR Value V=20*(V(v-)-V(vd))+(V(v-)+V(Vd))*0.002+0.005
SYMBOL res 784 -448 R90
WINDOW 0 0 56 VBottom 2
WINDOW 3 32 56 VTop 2
SYMATTR InstName R1
SYMATTR Value 1000
SYMBOL cap 816 -400 R0
SYMATTR InstName C3
SYMATTR Value 100n
SYMBOL res 944 -416 R0
SYMATTR InstName Ramp1
SYMATTR Value 1000k
SYMBOL res -480 -48 R180
WINDOW 0 36 76 Left 2
WINDOW 3 36 40 Left 2
SYMATTR InstName R4
SYMATTR Value 10k
SYMBOL bv 592 -96 R0
SYMATTR InstName B3
SYMATTR Value V=max(0,min(V(vin),V(rawlo)))
SYMBOL voltage -1280 -48 R0
WINDOW 123 0 0 Left 0
WINDOW 39 24 124 Left 2
SYMATTR SpiceLine Rser=0.1
SYMATTR InstName V3
SYMATTR Value 3.3
SYMBOL bv 592 -400 R0
SYMATTR InstName B4
SYMATTR Value V=max(0,min(V(vin),V(rawhi)))
SYMBOL res 192 -464 R0
SYMATTR InstName Rc9
SYMATTR Value 35m
SYMBOL res -736 -416 R0
SYMATTR InstName Rc1
SYMATTR Value 35m
SYMBOL res -1008 -448 R270
WINDOW 0 32 56 VTop 2
WINDOW 3 0 56 VBottom 2
SYMATTR InstName F1
SYMATTR Value 0.0039
SYMBOL ind -880 -448 R270
WINDOW 0 32 56 VTop 2
WINDOW 3 5 56 VBottom 2
SYMATTR InstName L2
SYMATTR Value 2.2µ
SYMATTR SpiceLine Ipk=15 Rser=.005
TEXT -664 -536 Left 2 !.tran 10m startup
